<?xml version="1.0" encoding="UTF-8"?>

<!-- generated on 2023-04-26 23:08:20 by Eclipse SUMO netedit Version 1.17.0
<configuration xmlns:xsi="http://www.w3.org/2001/XMLSchema-instance" xsi:noNamespaceSchemaLocation="http://sumo.dlr.de/xsd/netconvertConfiguration.xsd">

    <input>
        <sumo-net-file value="C:\Users\KIIT\Sumo\minor\map.net.xml"/>
    </input>

    <output>
        <output-file value="C:\Users\KIIT\Sumo\minor\map.net.xml"/>
        <output.street-names value="true"/>
    </output>

    <processing>
        <geometry.min-radius.fix.railways value="false"/>
        <geometry.max-grade.fix value="false"/>
        <offset.disable-normalization value="true"/>
        <lefthand value="1"/>
    </processing>

    <junctions>
        <no-internal-links value="true"/>
        <no-turnarounds value="true"/>
        <junctions.corner-detail value="5"/>
        <junctions.limit-turn-speed value="5.50"/>
        <rectangular-lane-cut value="0"/>
    </junctions>

    <pedestrian>
        <walkingareas value="0"/>
    </pedestrian>

</configuration>
-->

<net version="1.16" junctionCornerDetail="5" lefthand="true" limitTurnSpeed="5.50" xmlns:xsi="http://www.w3.org/2001/XMLSchema-instance" xsi:noNamespaceSchemaLocation="http://sumo.dlr.de/xsd/net_file.xsd">

    <location netOffset="-380912.00,-2238097.45" convBoundary="0.00,0.00,1471.04,6207.10" origBoundary="85.859857,20.236820,85.873631,20.292973" projParameter="+proj=utm +zone=45 +ellps=WGS84 +datum=WGS84 +units=m +no_defs"/>

    <type id="highway.bridleway" priority="1" numLanes="1" speed="2.78" allow="pedestrian" oneway="1" width="2.00"/>
    <type id="highway.bus_guideway" priority="1" numLanes="1" speed="27.78" allow="bus" oneway="1"/>
    <type id="highway.cycleway" priority="1" numLanes="1" speed="5.56" allow="bicycle" oneway="0" width="1.00"/>
    <type id="highway.footway" priority="1" numLanes="1" speed="2.78" allow="pedestrian" oneway="1" width="2.00"/>
    <type id="highway.ford" priority="1" numLanes="1" speed="2.78" allow="army" oneway="0"/>
    <type id="highway.living_street" priority="2" numLanes="1" speed="2.78" disallow="tram rail_urban rail rail_electric rail_fast ship" oneway="0"/>
    <type id="highway.motorway" priority="14" numLanes="2" speed="39.44" allow="private emergency authority army vip passenger hov taxi bus coach delivery truck trailer motorcycle evehicle custom1 custom2" oneway="1"/>
    <type id="highway.motorway_link" priority="9" numLanes="1" speed="22.22" allow="private emergency authority army vip passenger hov taxi bus coach delivery truck trailer motorcycle evehicle custom1 custom2" oneway="1"/>
    <type id="highway.path" priority="1" numLanes="1" speed="5.56" allow="pedestrian bicycle" oneway="0" width="2.00"/>
    <type id="highway.pedestrian" priority="1" numLanes="1" speed="2.78" allow="pedestrian" oneway="1" width="2.00"/>
    <type id="highway.primary" priority="12" numLanes="2" speed="27.78" disallow="tram rail_urban rail rail_electric rail_fast ship" oneway="0"/>
    <type id="highway.primary_link" priority="7" numLanes="1" speed="22.22" disallow="tram rail_urban rail rail_electric rail_fast ship" oneway="0"/>
    <type id="highway.raceway" priority="15" numLanes="2" speed="83.33" allow="vip" oneway="0"/>
    <type id="highway.residential" priority="3" numLanes="1" speed="13.89" disallow="tram rail_urban rail rail_electric rail_fast ship" oneway="0"/>
    <type id="highway.secondary" priority="11" numLanes="1" speed="27.78" disallow="tram rail_urban rail rail_electric rail_fast ship" oneway="0"/>
    <type id="highway.secondary_link" priority="6" numLanes="1" speed="22.22" disallow="tram rail_urban rail rail_electric rail_fast ship" oneway="0"/>
    <type id="highway.service" priority="1" numLanes="1" speed="5.56" allow="pedestrian delivery bicycle" oneway="0"/>
    <type id="highway.stairs" priority="1" numLanes="1" speed="1.39" allow="pedestrian" oneway="1" width="2.00"/>
    <type id="highway.step" priority="1" numLanes="1" speed="1.39" allow="pedestrian" oneway="1" width="2.00"/>
    <type id="highway.steps" priority="1" numLanes="1" speed="1.39" allow="pedestrian" oneway="1" width="2.00"/>
    <type id="highway.tertiary" priority="10" numLanes="1" speed="22.22" disallow="tram rail_urban rail rail_electric rail_fast ship" oneway="0"/>
    <type id="highway.tertiary_link" priority="5" numLanes="1" speed="22.22" disallow="tram rail_urban rail rail_electric rail_fast ship" oneway="0"/>
    <type id="highway.track" priority="1" numLanes="1" speed="5.56" allow="pedestrian motorcycle moped bicycle" oneway="0"/>
    <type id="highway.trunk" priority="13" numLanes="2" speed="27.78" disallow="pedestrian bicycle tram rail_urban rail rail_electric rail_fast ship" oneway="0"/>
    <type id="highway.trunk_link" priority="8" numLanes="1" speed="22.22" disallow="pedestrian bicycle tram rail_urban rail rail_electric rail_fast ship" oneway="0"/>
    <type id="highway.unclassified" priority="4" numLanes="1" speed="13.89" disallow="tram rail_urban rail rail_electric rail_fast ship" oneway="0"/>
    <type id="highway.unsurfaced" priority="1" numLanes="1" speed="8.33" disallow="tram rail_urban rail rail_electric rail_fast ship" oneway="0"/>
    <type id="railway.highspeed" priority="21" numLanes="1" speed="69.44" allow="rail_fast" oneway="1"/>
    <type id="railway.light_rail" priority="19" numLanes="1" speed="27.78" allow="rail_urban" oneway="1"/>
    <type id="railway.preserved" priority="16" numLanes="1" speed="27.78" allow="rail" oneway="1"/>
    <type id="railway.rail" priority="20" numLanes="1" speed="44.44" allow="rail" oneway="1"/>
    <type id="railway.subway" priority="18" numLanes="1" speed="27.78" allow="rail_urban" oneway="1"/>
    <type id="railway.tram" priority="17" numLanes="1" speed="13.89" allow="tram" oneway="1"/>

    <edge id="478811049" from="4593969310" to="8133618011" name="Cuttack - Puri Bypass Road" priority="13" type="highway.trunk" spreadType="center" shape="1269.69,4183.22 1254.91,4132.35 1247.74,4107.76 1243.42,4091.35 1237.40,4070.93 1228.10,4040.50 1210.31,3979.35 1198.27,3939.74 1196.83,3934.36 1186.24,3902.79 1180.23,3882.78 1165.46,3831.92 1124.77,3681.86 1105.74,3612.00 1097.12,3580.31 1091.34,3555.29 1081.94,3514.84 1009.85,3137.85 992.04,3042.71 971.06,2954.86 946.29,2855.88 925.08,2786.68 903.07,2722.77 865.44,2627.21 828.35,2536.41 792.43,2458.69 755.06,2377.86 711.96,2280.68 690.69,2237.18 662.53,2186.95 641.33,2152.66 635.05,2143.90 615.72,2116.95 587.67,2081.26 554.57,2040.29 551.76,2036.82 548.31,2032.55 392.50,1862.44 340.37,1799.76 308.38,1760.70 276.33,1709.03 245.71,1656.37 218.51,1601.76 195.71,1550.03 173.34,1489.08 158.85,1437.78 149.25,1391.77 97.78,1110.75 94.57,1092.85 73.68,976.53 33.50,751.66 29.49,729.19 22.75,683.80 16.70,636.33 14.58,619.86 11.98,570.29 13.95,503.83 21.23,426.19 27.32,388.81 36.15,343.51 49.93,272.74 73.57,163.45 85.84,104.20 96.17,43.50 101.45,1.84">
        <lane id="478811049_0" index="0" disallow="pedestrian bicycle tram rail_urban rail rail_electric rail_fast ship" speed="27.78" length="4464.37" shape="1271.23,4182.77 1256.45,4131.90 1249.28,4107.33 1244.96,4090.92 1238.93,4070.47 1229.63,4040.04 1211.84,3978.89 1199.81,3939.30 1198.36,3933.90 1187.77,3902.31 1181.76,3882.33 1167.00,3831.49 1126.31,3681.44 1107.28,3611.58 1098.67,3579.92 1092.90,3554.93 1083.51,3514.51 1011.42,3137.55 993.61,3042.38 972.61,2954.48 947.83,2855.45 926.60,2786.18 904.57,2722.22 866.93,2626.61 829.82,2535.77 793.88,2458.02 756.52,2377.20 713.41,2280.00 692.11,2236.44 663.91,2186.14 642.66,2151.77 636.35,2142.97 617.00,2115.99 588.92,2080.26 555.81,2039.28 553.00,2035.81 549.52,2031.51 393.71,1861.39 341.60,1798.74 309.68,1759.77 277.70,1708.21 247.12,1655.61 219.96,1601.08 197.19,1549.43 174.86,1488.59 160.40,1437.40 150.82,1391.46 99.35,1110.46 96.14,1092.57 75.25,976.25 35.08,751.38 31.07,728.93 24.34,683.58 18.29,636.13 16.17,619.72 13.58,570.27 15.55,503.93 22.82,426.39 28.90,389.09 37.72,343.82 51.50,273.06 75.14,163.78 87.41,104.50 97.75,43.73 103.04,2.04">
            <param key="origId" value="478811049"/>
        </lane>
        <lane id="478811049_1" index="1" disallow="pedestrian bicycle tram rail_urban rail rail_electric rail_fast ship" speed="27.78" length="4464.37" shape="1268.15,4183.67 1253.37,4132.80 1246.20,4108.19 1241.88,4091.78 1235.87,4071.39 1226.57,4040.96 1208.78,3979.81 1196.73,3940.18 1195.30,3934.82 1184.71,3903.27 1178.70,3883.23 1163.92,3832.35 1123.23,3682.28 1104.20,3612.42 1095.57,3580.70 1089.78,3555.65 1080.37,3515.17 1008.28,3138.15 990.47,3043.04 969.51,2955.24 944.75,2856.31 923.56,2787.18 901.57,2723.32 863.95,2627.81 826.88,2537.05 790.98,2459.36 753.60,2378.52 710.51,2281.36 689.27,2237.92 661.15,2187.76 640.00,2153.55 633.75,2144.83 614.44,2117.91 586.42,2082.26 553.33,2041.30 550.52,2037.83 547.10,2033.59 391.29,1863.49 339.14,1800.78 307.08,1761.63 274.96,1709.85 244.30,1657.13 217.06,1602.44 194.23,1550.63 171.82,1489.57 157.30,1438.16 147.68,1392.08 96.21,1111.04 93.00,1093.13 72.11,976.81 31.92,751.94 27.91,729.45 21.16,684.02 15.11,636.53 12.99,620.00 10.38,570.31 12.35,503.73 19.64,425.99 25.74,388.53 34.58,343.20 48.36,272.42 72.00,163.12 84.27,103.90 94.59,43.27 99.86,1.64">
            <param key="origId" value="478811049"/>
        </lane>
        <param key="ref" value="NH316"/>
    </edge>
    <edge id="873398460" from="8133618009" to="3725560658" name="Cuttack - Puri Bypass Road" priority="13" type="highway.trunk" spreadType="center" shape="88.85,0.00 87.36,15.36 75.30,85.29 69.58,118.40 30.73,297.70 19.67,354.20 11.86,394.09 3.86,465.92 0.00,522.52 2.44,625.67 3.15,639.66 7.04,681.22 18.58,754.60 31.12,820.62 38.46,859.22 43.26,884.47 77.17,1072.06 116.79,1291.83 127.87,1354.70 137.16,1401.44 144.69,1437.59 155.00,1469.83 168.74,1512.63 182.26,1549.74 199.52,1589.31 212.02,1616.66 229.25,1652.00 246.47,1685.24 263.27,1716.70 281.69,1746.65 303.20,1778.25 332.04,1816.21 385.80,1875.94 457.65,1950.59 510.71,2009.33 560.79,2065.98 586.92,2098.73 613.92,2135.27 641.80,2176.87 664.16,2216.40 688.24,2260.15 710.66,2308.96 737.40,2368.72 779.21,2460.47 832.24,2575.35 877.65,2692.03 893.63,2735.08 903.64,2764.27 915.10,2801.78 930.55,2849.58 958.77,2960.24 970.32,3010.29 985.61,3083.82 1001.46,3166.45 1015.98,3240.65 1038.05,3362.49 1048.31,3416.68 1060.43,3476.72 1069.59,3520.13 1076.05,3550.79 1084.59,3586.13 1101.60,3648.09 1106.99,3666.61 1119.01,3707.86 1130.07,3745.84 1175.01,3898.26 1213.43,4025.05 1246.91,4141.67 1295.35,4307.17 1329.31,4425.24 1341.62,4467.10 1357.78,4522.02 1394.71,4645.41 1400.78,4668.72 1416.75,4730.11 1435.36,4811.24 1442.66,4853.30 1448.19,4885.23 1459.42,4971.48 1465.10,5033.66 1467.02,5083.06 1468.01,5108.40 1469.87,5166.06 1470.20,5188.67 1471.04,5245.38 1467.32,5311.69 1466.69,5322.80 1464.09,5352.02 1457.19,5429.54 1450.55,5474.94 1443.22,5527.23 1428.15,5606.70 1425.75,5617.19 1403.05,5715.96 1388.11,5777.05 1375.02,5830.62 1354.91,5920.78 1332.21,6019.68 1294.41,6174.12 1286.35,6207.10">
        <lane id="873398460_0" index="0" disallow="pedestrian bicycle tram rail_urban rail rail_electric rail_fast ship" speed="27.78" length="6537.70" shape="87.26,-0.15 85.77,15.15 73.72,85.02 68.01,118.09 29.16,297.38 18.10,353.89 10.28,393.85 2.27,465.78 -1.60,522.48 0.84,625.73 1.55,639.78 5.45,681.42 17.00,754.87 29.55,820.92 36.89,859.52 41.69,884.76 75.60,1072.34 115.21,1292.11 126.30,1354.99 135.59,1401.76 143.14,1438.00 153.48,1470.32 167.23,1513.15 180.77,1550.33 198.06,1589.96 210.57,1617.34 227.82,1652.72 245.05,1685.98 261.88,1717.50 280.35,1747.52 301.90,1779.18 330.81,1817.23 384.63,1877.03 456.48,1951.68 509.52,2010.40 559.56,2067.01 585.65,2099.70 612.61,2136.19 640.44,2177.71 662.76,2217.18 686.81,2260.87 709.20,2309.62 735.94,2369.38 777.76,2461.14 830.77,2575.98 876.15,2692.60 892.12,2735.62 902.12,2764.76 913.57,2802.26 929.01,2850.02 957.22,2960.62 968.76,3010.63 984.04,3084.13 999.89,3166.75 1014.41,3240.95 1036.48,3362.78 1046.74,3416.99 1058.86,3477.04 1068.02,3520.46 1074.49,3551.14 1083.04,3586.53 1100.06,3648.53 1105.45,3667.06 1117.47,3708.31 1128.53,3746.29 1173.48,3898.72 1211.90,4025.50 1245.37,4142.12 1293.81,4307.62 1327.77,4425.69 1340.09,4467.55 1356.25,4522.48 1393.17,4645.84 1399.23,4669.12 1415.20,4730.49 1433.79,4811.56 1441.08,4853.57 1446.61,4885.47 1457.83,4971.66 1463.50,5033.76 1465.42,5083.12 1466.41,5108.46 1468.27,5166.10 1468.60,5188.69 1469.44,5245.35 1465.72,5311.60 1465.09,5322.68 1462.50,5351.88 1455.60,5429.35 1448.97,5474.71 1441.64,5526.97 1426.58,5606.37 1424.19,5616.83 1401.49,5715.59 1386.56,5776.67 1373.46,5830.26 1353.35,5920.43 1330.65,6019.31 1292.86,6173.74 1284.80,6206.72">
            <param key="origId" value="873398460"/>
        </lane>
        <lane id="873398460_1" index="1" disallow="pedestrian bicycle tram rail_urban rail rail_electric rail_fast ship" speed="27.78" length="6537.70" shape="90.44,0.15 88.95,15.57 76.88,85.56 71.15,118.71 32.30,298.02 21.24,354.51 13.44,394.33 5.45,466.06 1.60,522.56 4.04,625.61 4.75,639.54 8.63,681.02 20.16,754.33 32.69,820.32 40.03,858.92 44.83,884.18 78.74,1071.78 118.37,1291.55 129.44,1354.41 138.73,1401.12 146.24,1437.18 156.52,1469.34 170.25,1512.11 183.75,1549.15 200.98,1588.66 213.47,1615.98 230.68,1651.28 247.89,1684.50 264.66,1715.90 283.03,1745.78 304.50,1777.32 333.27,1815.19 386.97,1874.85 458.82,1949.50 511.90,2008.26 562.02,2064.95 588.19,2097.76 615.23,2134.35 643.16,2176.03 665.56,2215.62 689.67,2259.43 712.12,2308.30 738.86,2368.06 780.66,2459.80 833.71,2574.72 879.15,2691.46 895.14,2734.54 905.16,2763.78 916.63,2801.30 932.09,2849.14 960.32,2959.86 971.88,3009.95 987.18,3083.51 1003.03,3166.15 1017.55,3240.35 1039.62,3362.20 1049.88,3416.37 1062.00,3476.40 1071.16,3519.80 1077.61,3550.44 1086.14,3585.73 1103.14,3647.65 1108.53,3666.16 1120.55,3707.41 1131.61,3745.39 1176.54,3897.80 1214.96,4024.60 1248.45,4141.22 1296.89,4306.72 1330.85,4424.79 1343.15,4466.65 1359.31,4521.56 1396.25,4644.98 1402.33,4668.32 1418.30,4729.73 1436.93,4810.92 1444.24,4853.03 1449.77,4884.99 1461.01,4971.30 1466.70,5033.56 1468.62,5083.00 1469.61,5108.34 1471.47,5166.02 1471.80,5188.65 1472.64,5245.41 1468.92,5311.78 1468.29,5322.92 1465.68,5352.16 1458.78,5429.73 1452.13,5475.17 1444.80,5527.49 1429.72,5607.03 1427.31,5617.55 1404.61,5716.33 1389.66,5777.43 1376.58,5830.98 1356.47,5921.13 1333.77,6020.05 1295.96,6174.50 1287.90,6207.48">
            <param key="origId" value="873398460"/>
        </lane>
        <param key="ref" value="NH316"/>
    </edge>

    <junction id="3725560658" type="dead_end" x="1286.35" y="6207.10" incLanes="873398460_0 873398460_1" intLanes="" shape="1283.24,6206.34 1289.46,6207.86"/>
    <junction id="4593969310" type="dead_end" x="1269.69" y="4183.22" incLanes="" intLanes="" shape="1266.62,4184.11 1272.76,4182.33"/>
    <junction id="8133618009" type="dead_end" x="88.85" y="0.00" incLanes="" intLanes="" shape="92.04,0.31 85.66,-0.31"/>
    <junction id="8133618011" type="dead_end" x="101.45" y="1.84" incLanes="478811049_0 478811049_1" intLanes="" shape="104.62,2.24 98.28,1.44"/>

</net>
